testcases/opendss/p1rhs0_1247--p1rdt6163/Loads.dss
New Load.load_p1rlv10789 conn=wye bus1=p1rlv10789.1.2 kV=0.2080002494301389 Vminpu=0.8 Vmaxpu=1.2 model=1 kW=1.9700200000000003 kvar=0.4000296226222012 Phases=2

New Load.load_p1rlv10838 conn=wye bus1=p1rlv10838.1.2 kV=0.2080002494301389 Vminpu=0.8 Vmaxpu=1.2 model=1 kW=7.66008 kvar=1.5514329688562003 Phases=2

New Load.load_p1rlv10842 conn=wye bus1=p1rlv10842.1.2 kV=0.2080002494301389 Vminpu=0.8 Vmaxpu=1.2 model=1 kW=0.880009 kvar=0.1800701458051301 Phases=2

New Load.load_p1rlv10870 conn=wye bus1=p1rlv10870.1.2 kV=0.2080002494301389 Vminpu=0.8 Vmaxpu=1.2 model=1 kW=0.800008 kvar=0.15991959944678147 Phases=2

New Load.load_p1rlv10875 conn=wye bus1=p1rlv10875.1.2 kV=0.2080002494301389 Vminpu=0.8 Vmaxpu=1.2 model=1 kW=3.13003 kvar=0.6306495704677809 Phases=2

New Load.load_p1rlv10906 conn=wye bus1=p1rlv10906.1.2 kV=0.2080002494301389 Vminpu=0.8 Vmaxpu=1.2 model=1 kW=0.420004 kvar=0.0900059182727255 Phases=2

New Load.load_p1rlv10962 conn=wye bus1=p1rlv10962.1.2 kV=0.2080002494301389 Vminpu=0.8 Vmaxpu=1.2 model=1 kW=1.60002 kvar=0.529865022157608 Phases=2

New Load.load_p1rlv10967 conn=wye bus1=p1rlv10967.1.2 kV=0.2080002494301389 Vminpu=0.8 Vmaxpu=1.2 model=1 kW=1.22001 kvar=0.40013137987912967 Phases=2

New Load.load_p1rlv10991 conn=wye bus1=p1rlv10991.1.2 kV=0.2080002494301389 Vminpu=0.8 Vmaxpu=1.2 model=1 kW=2.94003 kvar=0.6000682817178988 Phases=2

New Load.load_p1rlv11001 conn=wye bus1=p1rlv11001.1.2 kV=0.2080002494301389 Vminpu=0.8 Vmaxpu=1.2 model=1 kW=2.60003 kvar=0.8499665108742557 Phases=2

New Load.load_p1rlv11073 conn=wye bus1=p1rlv11073.1.2 kV=0.2080002494301389 Vminpu=0.8 Vmaxpu=1.2 model=1 kW=1.38001 kvar=0.28022298226153225 Phases=2

New Load.load_p1rlv11081 conn=wye bus1=p1rlv11081.1.2 kV=0.2080002494301389 Vminpu=0.8 Vmaxpu=1.2 model=1 kW=1.60002 kvar=0.31983999848356426 Phases=2

New Load.load_p1rlv11087 conn=wye bus1=p1rlv11087.1.2 kV=0.2080002494301389 Vminpu=0.8 Vmaxpu=1.2 model=1 kW=6.00006 kvar=1.9699943889383298 Phases=2

New Load.load_p1rlv11088 conn=wye bus1=p1rlv11088.1.2 kV=0.2080002494301389 Vminpu=0.8 Vmaxpu=1.2 model=1 kW=1.7300200000000001 kvar=0.5698569511572062 Phases=2

New Load.load_p1rlv11104 conn=wye bus1=p1rlv11104.1.2 kV=0.2080002494301389 Vminpu=0.8 Vmaxpu=1.2 model=1 kW=2.14002 kvar=0.4300500713784323 Phases=2

New Load.load_p1rlv12509 conn=wye bus1=p1rlv12509.1.2 kV=0.2080002494301389 Vminpu=0.8 Vmaxpu=1.2 model=1 kW=1.25001 kvar=0.40997059545635767 Phases=2

New Load.load_p1rlv12513 conn=wye bus1=p1rlv12513.1.2.3 kV=0.48 Vminpu=0.8 Vmaxpu=1.2 model=1 kW=20.2102 kvar=6.642771502485861 Phases=3

New Load.load_p1rlv12514 conn=wye bus1=p1rlv12514.1.2 kV=0.2080002494301389 Vminpu=0.8 Vmaxpu=1.2 model=1 kW=1.91002 kvar=0.6298242311465005 Phases=2

New Load.load_p1rlv12516 conn=wye bus1=p1rlv12516.1.2 kV=0.2080002494301389 Vminpu=0.8 Vmaxpu=1.2 model=1 kW=3.55004 kvar=1.170616649846244 Phases=2

New Load.load_p1rlv12530 conn=wye bus1=p1rlv12530.1.2 kV=0.2080002494301389 Vminpu=0.8 Vmaxpu=1.2 model=1 kW=8.37008 kvar=2.751112255075499 Phases=2

New Load.load_p1rlv12532 conn=wye bus1=p1rlv12532.1.2 kV=0.2080002494301389 Vminpu=0.8 Vmaxpu=1.2 model=1 kW=3.9600400000000002 kvar=1.3001964280309437 Phases=2

New Load.load_p1rlv12539 conn=wye bus1=p1rlv12539.1.2 kV=0.2080002494301389 Vminpu=0.8 Vmaxpu=1.2 model=1 kW=1.86002 kvar=0.6100379252651853 Phases=2

New Load.load_p1rlv12546 conn=wye bus1=p1rlv12546.1.2 kV=0.2080002494301389 Vminpu=0.8 Vmaxpu=1.2 model=1 kW=1.3000100000000003 kvar=0.43005421137611194 Phases=2

New Load.load_p1rlv12548 conn=wye bus1=p1rlv12548.1.2 kV=0.2080002494301389 Vminpu=0.8 Vmaxpu=1.2 model=1 kW=2.81003 kvar=0.9196174662748142 Phases=2

New Load.load_p1rlv12833 conn=wye bus1=p1rlv12833.1.2 kV=0.2080002494301389 Vminpu=0.8 Vmaxpu=1.2 model=1 kW=1.16001 kvar=0.2397656497872118 Phases=2

New Load.load_p1rlv12880 conn=wye bus1=p1rlv12880.1.2 kV=0.2080002494301389 Vminpu=0.8 Vmaxpu=1.2 model=1 kW=1.89002 kvar=0.37981104658211823 Phases=2

New Load.load_p1rlv12890 conn=wye bus1=p1rlv12890.1.2 kV=0.2080002494301389 Vminpu=0.8 Vmaxpu=1.2 model=1 kW=0.580006 kvar=0.11988303158634973 Phases=2

New Load.load_p1rlv12927 conn=wye bus1=p1rlv12927.1.2 kV=0.2080002494301389 Vminpu=0.8 Vmaxpu=1.2 model=1 kW=0.730007 kvar=0.150133381967663 Phases=2

New Load.load_p1rlv12946 conn=wye bus1=p1rlv12946.1.2 kV=0.2080002494301389 Vminpu=0.8 Vmaxpu=1.2 model=1 kW=4.91005 kvar=0.9995943979048163 Phases=2

New Load.load_p1rlv12960 conn=wye bus1=p1rlv12960.1.2 kV=0.2080002494301389 Vminpu=0.8 Vmaxpu=1.2 model=1 kW=2.85003 kvar=0.5802128332421591 Phases=2

New Load.load_p1rlv13204 conn=wye bus1=p1rlv13204.1.2 kV=0.2080002494301389 Vminpu=0.8 Vmaxpu=1.2 model=1 kW=8.790090000000001 kvar=2.8891628660916733 Phases=2

New Load.load_p1rlv13205 conn=wye bus1=p1rlv13205.1.2 kV=0.2080002494301389 Vminpu=0.8 Vmaxpu=1.2 model=1 kW=1.86002 kvar=0.6100379252651853 Phases=2

New Load.load_p1rlv13206 conn=wye bus1=p1rlv13206.1.2.3 kV=0.48 Vminpu=0.8 Vmaxpu=1.2 model=1 kW=30.1103 kvar=9.896777012167123 Phases=3

New Load.load_p1rlv13207 conn=wye bus1=p1rlv13207.1.2 kV=0.2080002494301389 Vminpu=0.8 Vmaxpu=1.2 model=1 kW=1.50002 kvar=0.4898316283880489 Phases=2

New Load.load_p1rlv13869 conn=wye bus1=p1rlv13869.1.2 kV=0.2080002494301389 Vminpu=0.8 Vmaxpu=1.2 model=1 kW=0.3000030000000001 kvar=0.0999833933383273 Phases=2

New Load.load_p1rlv13871 conn=wye bus1=p1rlv13871.1.2 kV=0.2080002494301389 Vminpu=0.8 Vmaxpu=1.2 model=1 kW=0.6600070000000001 kvar=0.21996359865417808 Phases=2

New Load.load_p1rlv13872 conn=wye bus1=p1rlv13872.1.2 kV=0.2080002494301389 Vminpu=0.8 Vmaxpu=1.2 model=1 kW=1.90002 kvar=0.6197740383434039 Phases=2

New Load.load_p1rlv13878 conn=wye bus1=p1rlv13878.1.2 kV=0.2080002494301389 Vminpu=0.8 Vmaxpu=1.2 model=1 kW=1.04001 kvar=0.3399859505368533 Phases=2

New Load.load_p1rlv13892 conn=wye bus1=p1rlv13892.1.2 kV=0.2080002494301389 Vminpu=0.8 Vmaxpu=1.2 model=1 kW=5.50006 kvar=1.8097332767634438 Phases=2

New Load.load_p1rlv13899 conn=wye bus1=p1rlv13899.1.2 kV=0.2080002494301389 Vminpu=0.8 Vmaxpu=1.2 model=1 kW=1.63002 kvar=0.5397998671375009 Phases=2

New Load.load_p1rlv13905 conn=wye bus1=p1rlv13905.1.2 kV=0.2080002494301389 Vminpu=0.8 Vmaxpu=1.2 model=1 kW=13.6901 kvar=4.499718268309153 Phases=2

New Load.load_p1rlv13906 conn=wye bus1=p1rlv13906.1.2 kV=0.2080002494301389 Vminpu=0.8 Vmaxpu=1.2 model=1 kW=4.44004 kvar=1.4593705743583594 Phases=2

New Load.load_p1rlv13912 conn=wye bus1=p1rlv13912.1.2 kV=0.2080002494301389 Vminpu=0.8 Vmaxpu=1.2 model=1 kW=1.55002 kvar=0.5100167586624277 Phases=2

New Load.load_p1rlv13919 conn=wye bus1=p1rlv13919.1.2 kV=0.2080002494301389 Vminpu=0.8 Vmaxpu=1.2 model=1 kW=0.620006 kvar=0.20002114980484142 Phases=2

New Load.load_p1rlv13920 conn=wye bus1=p1rlv13920.1.2 kV=0.2080002494301389 Vminpu=0.8 Vmaxpu=1.2 model=1 kW=5.97006 kvar=1.9601445154923727 Phases=2

New Load.load_p1rlv13925 conn=wye bus1=p1rlv13925.1.2 kV=0.2080002494301389 Vminpu=0.8 Vmaxpu=1.2 model=1 kW=0.620006 kvar=0.20002114980484142 Phases=2

New Load.load_p1rlv14676 conn=wye bus1=p1rlv14676.1.2 kV=0.2080002494301389 Vminpu=0.8 Vmaxpu=1.2 model=1 kW=0.240002 kvar=0.0799865813608038 Phases=2

New Load.load_p1rlv14763 conn=wye bus1=p1rlv14763.1.2 kV=0.2080002494301389 Vminpu=0.8 Vmaxpu=1.2 model=1 kW=1.91002 kvar=0.6298242311465005 Phases=2

New Load.load_p1rlv14797 conn=wye bus1=p1rlv14797.1.2 kV=0.2080002494301389 Vminpu=0.8 Vmaxpu=1.2 model=1 kW=1.71002 kvar=0.5602338750756536 Phases=2

New Load.load_p1rlv14798 conn=wye bus1=p1rlv14798.1.2 kV=0.2080002494301389 Vminpu=0.8 Vmaxpu=1.2 model=1 kW=5.54006 kvar=1.8209296637372128 Phases=2

New Load.load_p1rlv14815 conn=wye bus1=p1rlv14815.1.2 kV=0.2080002494301389 Vminpu=0.8 Vmaxpu=1.2 model=1 kW=2.24002 kvar=0.7402258301206796 Phases=2

New Load.load_p1rlv15270 conn=wye bus1=p1rlv15270.1.2 kV=0.2080002494301389 Vminpu=0.8 Vmaxpu=1.2 model=1 kW=3.29003 kvar=0.6697886084538411 Phases=2

New Load.load_p1rlv15271 conn=wye bus1=p1rlv15271.1.2 kV=0.2080002494301389 Vminpu=0.8 Vmaxpu=1.2 model=1 kW=10.5801 kvar=2.148380935373829 Phases=2

New Load.load_p1rlv16321 conn=wye bus1=p1rlv16321.1.2 kV=0.2080002494301389 Vminpu=0.8 Vmaxpu=1.2 model=1 kW=0.310003 kvar=0.10001057490242071 Phases=2

New Load.load_p1rlv16338 conn=wye bus1=p1rlv16338.1.2 kV=0.2080002494301389 Vminpu=0.8 Vmaxpu=1.2 model=1 kW=5.33005 kvar=1.7500105986874708 Phases=2

New Load.load_p1rlv16353 conn=wye bus1=p1rlv16353.1.2 kV=0.2080002494301389 Vminpu=0.8 Vmaxpu=1.2 model=1 kW=0.940009 kvar=0.3099655740231992 Phases=2

New Load.load_p1rlv16367 conn=wye bus1=p1rlv16367.1.2 kV=0.2080002494301389 Vminpu=0.8 Vmaxpu=1.2 model=1 kW=2.17002 kvar=0.7101661883202929 Phases=2

New Load.load_p1rlv16374 conn=wye bus1=p1rlv16374.1.2 kV=0.2080002494301389 Vminpu=0.8 Vmaxpu=1.2 model=1 kW=4.90005 kvar=1.6105685495816884 Phases=2

New Load.load_p1rlv17390 conn=wye bus1=p1rlv17390.1.2 kV=0.2080002494301389 Vminpu=0.8 Vmaxpu=1.2 model=1 kW=2.00002 kvar=0.6602093323043688 Phases=2

New Load.load_p1rlv17479 conn=wye bus1=p1rlv17479.1.2 kV=0.2080002494301389 Vminpu=0.8 Vmaxpu=1.2 model=1 kW=0.500005 kvar=0.09994974965423842 Phases=2

New Load.load_p1rlv17484 conn=wye bus1=p1rlv17484.1.2 kV=0.2080002494301389 Vminpu=0.8 Vmaxpu=1.2 model=1 kW=1.25001 kvar=0.40997059545635767 Phases=2

New Load.load_p1rlv17510 conn=wye bus1=p1rlv17510.1.2 kV=0.2080002494301389 Vminpu=0.8 Vmaxpu=1.2 model=1 kW=0.630006 kvar=0.20996502602809375 Phases=2

New Load.load_p1rlv17511 conn=wye bus1=p1rlv17511.1.2 kV=0.2080002494301389 Vminpu=0.8 Vmaxpu=1.2 model=1 kW=2.58003 kvar=0.8498445276321237 Phases=2

New Load.load_p1rlv17513 conn=wye bus1=p1rlv17513.1.2 kV=0.2080002494301389 Vminpu=0.8 Vmaxpu=1.2 model=1 kW=1.64002 kvar=0.5402115565350929 Phases=2

New Load.load_p1rlv17514 conn=wye bus1=p1rlv17514.1.2 kV=0.2080002494301389 Vminpu=0.8 Vmaxpu=1.2 model=1 kW=1.53002 kvar=0.5001733676026157 Phases=2

New Load.load_p1rlv17517 conn=wye bus1=p1rlv17517.1.2 kV=0.2080002494301389 Vminpu=0.8 Vmaxpu=1.2 model=1 kW=0.910009 kvar=0.30007315041800386 Phases=2

New Load.load_p1rlv19145 conn=wye bus1=p1rlv19145.1.2 kV=0.2080002494301389 Vminpu=0.8 Vmaxpu=1.2 model=1 kW=1.17001 kvar=0.24001843710200912 Phases=2

New Load.load_p1rlv19148 conn=wye bus1=p1rlv19148.1.2 kV=0.2080002494301389 Vminpu=0.8 Vmaxpu=1.2 model=1 kW=1.26001 kvar=0.2597851280568115 Phases=2

New Load.load_p1rlv19150 conn=wye bus1=p1rlv19150.1.2 kV=0.2080002494301389 Vminpu=0.8 Vmaxpu=1.2 model=1 kW=1.58002 kvar=0.32000907555171404 Phases=2

New Load.load_p1rlv19152 conn=wye bus1=p1rlv19152.1.2 kV=0.2080002494301389 Vminpu=0.8 Vmaxpu=1.2 model=1 kW=1.79002 kvar=0.35971543666359257 Phases=2

New Load.load_p1rlv19153 conn=wye bus1=p1rlv19153.1.2 kV=0.2080002494301389 Vminpu=0.8 Vmaxpu=1.2 model=1 kW=1.23001 kvar=0.24976418316643162 Phases=2

New Load.load_p1rlv19154 conn=wye bus1=p1rlv19154.1.2 kV=0.2080002494301389 Vminpu=0.8 Vmaxpu=1.2 model=1 kW=2.02002 kvar=0.4101825556539014 Phases=2

New Load.load_p1rlv19155 conn=wye bus1=p1rlv19155.1.2 kV=0.2080002494301389 Vminpu=0.8 Vmaxpu=1.2 model=1 kW=2.16002 kvar=0.43973969539258484 Phases=2

New Load.load_p1rlv19158 conn=wye bus1=p1rlv19158.1.2 kV=0.2080002494301389 Vminpu=0.8 Vmaxpu=1.2 model=1 kW=1.09001 kvar=0.22019269518951132 Phases=2

New Load.load_p1rlv19159 conn=wye bus1=p1rlv19159.1.2 kV=0.2080002494301389 Vminpu=0.8 Vmaxpu=1.2 model=1 kW=1.7400200000000001 kvar=0.3496676317043298 Phases=2

New Load.load_p1rlv19162 conn=wye bus1=p1rlv19162.1.2 kV=0.2080002494301389 Vminpu=0.8 Vmaxpu=1.2 model=1 kW=1.51002 kvar=0.30976883991827064 Phases=2

New Load.load_p1rlv19167 conn=wye bus1=p1rlv19167.1.2 kV=0.2080002494301389 Vminpu=0.8 Vmaxpu=1.2 model=1 kW=0.830008 kvar=0.27015044132679694 Phases=2

New Load.load_p1rlv19170 conn=wye bus1=p1rlv19170.1.2 kV=0.2080002494301389 Vminpu=0.8 Vmaxpu=1.2 model=1 kW=3.44003 kvar=1.1294620050098705 Phases=2

New Load.load_p1rlv19175 conn=wye bus1=p1rlv19175.1.2 kV=0.2080002494301389 Vminpu=0.8 Vmaxpu=1.2 model=1 kW=1.63002 kvar=0.5397998671375009 Phases=2

New Load.load_p1rlv19177 conn=wye bus1=p1rlv19177.1.2 kV=0.2080002494301389 Vminpu=0.8 Vmaxpu=1.2 model=1 kW=9.06009 kvar=2.9811213629436235 Phases=2

New Load.load_p1rlv19178 conn=wye bus1=p1rlv19178.1.2 kV=0.2080002494301389 Vminpu=0.8 Vmaxpu=1.2 model=1 kW=1.27001 kvar=0.25987334887935604 Phases=2

New Load.load_p1rlv19182 conn=wye bus1=p1rlv19182.1.2 kV=0.2080002494301389 Vminpu=0.8 Vmaxpu=1.2 model=1 kW=2.28002 kvar=0.46058636974522216 Phases=2

New Load.load_p1rlv19185 conn=wye bus1=p1rlv19185.1.2 kV=0.2080002494301389 Vminpu=0.8 Vmaxpu=1.2 model=1 kW=2.25002 kvar=0.7403439357722067 Phases=2

New Load.load_p1rlv19186 conn=wye bus1=p1rlv19186.1.2 kV=0.2080002494301389 Vminpu=0.8 Vmaxpu=1.2 model=1 kW=0.730007 kvar=0.23994169756930633 Phases=2

New Load.load_p1rlv19187 conn=wye bus1=p1rlv19187.1.2 kV=0.2080002494301389 Vminpu=0.8 Vmaxpu=1.2 model=1 kW=1.77002 kvar=0.36034298554586675 Phases=2

New Load.load_p1rlv19192 conn=wye bus1=p1rlv19192.1.2 kV=0.2080002494301389 Vminpu=0.8 Vmaxpu=1.2 model=1 kW=12.340100000000001 kvar=2.499300004566845 Phases=2

New Load.load_p1rlv19195 conn=wye bus1=p1rlv19195.1.2 kV=0.2080002494301389 Vminpu=0.8 Vmaxpu=1.2 model=1 kW=0.510005 kvar=0.1699717353476919 Phases=2

New Load.load_p1rlv19196 conn=wye bus1=p1rlv19196.1.2 kV=0.2080002494301389 Vminpu=0.8 Vmaxpu=1.2 model=1 kW=2.00002 kvar=0.6602093323043688 Phases=2

New Load.load_p1rlv19832 conn=wye bus1=p1rlv19832.1.2 kV=0.2080002494301389 Vminpu=0.8 Vmaxpu=1.2 model=1 kW=1.70002 kvar=0.3496264446952789 Phases=2

New Load.load_p1rlv19845 conn=wye bus1=p1rlv19845.1.2 kV=0.2080002494301389 Vminpu=0.8 Vmaxpu=1.2 model=1 kW=1.9700200000000003 kvar=0.4000296226222012 Phases=2

New Load.load_p1rlv19849 conn=wye bus1=p1rlv19849.1.2 kV=0.2080002494301389 Vminpu=0.8 Vmaxpu=1.2 model=1 kW=1.0600100000000001 kvar=0.3499107480604964 Phases=2

New Load.load_p1rlv19851 conn=wye bus1=p1rlv19851.1.2 kV=0.2080002494301389 Vminpu=0.8 Vmaxpu=1.2 model=1 kW=1.17001 kvar=0.24001843710200912 Phases=2

New Load.load_p1rlv19854 conn=wye bus1=p1rlv19854.1.2 kV=0.2080002494301389 Vminpu=0.8 Vmaxpu=1.2 model=1 kW=1.52002 kvar=0.5001455939291516 Phases=2

New Load.load_p1rlv19861 conn=wye bus1=p1rlv19861.1.2 kV=0.2080002494301389 Vminpu=0.8 Vmaxpu=1.2 model=1 kW=2.24002 kvar=0.7402258301206796 Phases=2

New Load.load_p1rlv19870 conn=wye bus1=p1rlv19870.1.2 kV=0.2080002494301389 Vminpu=0.8 Vmaxpu=1.2 model=1 kW=3.27003 kvar=1.0701582201053481 Phases=2

New Load.load_p1rlv19879 conn=wye bus1=p1rlv19879.1.2 kV=0.2080002494301389 Vminpu=0.8 Vmaxpu=1.2 model=1 kW=2.30002 kvar=0.46944046466083733 Phases=2

New Load.load_p1rlv19892 conn=wye bus1=p1rlv19892.1.2 kV=0.2080002494301389 Vminpu=0.8 Vmaxpu=1.2 model=1 kW=4.05004 kvar=0.8202741461167985 Phases=2

New Load.load_p1rlv19894 conn=wye bus1=p1rlv19894.1.2 kV=0.2080002494301389 Vminpu=0.8 Vmaxpu=1.2 model=1 kW=1.15001 kvar=0.2298841243584978 Phases=2

New Load.load_p1rlv19910 conn=wye bus1=p1rlv19910.1.2 kV=0.2080002494301389 Vminpu=0.8 Vmaxpu=1.2 model=1 kW=3.44003 kvar=0.7003258045487328 Phases=2

New Load.load_p1rlv20123 conn=wye bus1=p1rlv20123.1.2.3 kV=0.48 Vminpu=0.8 Vmaxpu=1.2 model=1 kW=32.6503 kvar=6.629926187298432 Phases=3

New Load.load_p1rlv20124 conn=wye bus1=p1rlv20124.1.2.3 kV=0.48 Vminpu=0.8 Vmaxpu=1.2 model=1 kW=64.5206 kvar=13.101466619302341 Phases=3

New Load.load_p1rlv20125 conn=wye bus1=p1rlv20125.1.2.3 kV=0.48 Vminpu=0.8 Vmaxpu=1.2 model=1 kW=34.0703 kvar=6.918269485398717 Phases=3

New Load.load_p1rlv20126 conn=wye bus1=p1rlv20126.1.2 kV=0.2080002494301389 Vminpu=0.8 Vmaxpu=1.2 model=1 kW=14.6101 kvar=2.9667073377288657 Phases=2

New Load.load_p1rlv20127 conn=wye bus1=p1rlv20127.1.2.3 kV=0.48 Vminpu=0.8 Vmaxpu=1.2 model=1 kW=22.840199999999996 kvar=4.637900420612785 Phases=3

New Load.load_p1rlv20217 conn=wye bus1=p1rlv20217.1.2 kV=0.2080002494301389 Vminpu=0.8 Vmaxpu=1.2 model=1 kW=1.93002 kvar=0.6302481563055841 Phases=2

New Load.load_p1rlv20218 conn=wye bus1=p1rlv20218.1.2 kV=0.2080002494301389 Vminpu=0.8 Vmaxpu=1.2 model=1 kW=1.54002 kvar=0.5099953321978222 Phases=2

New Load.load_p1rlv20219 conn=wye bus1=p1rlv20219.1.2 kV=0.2080002494301389 Vminpu=0.8 Vmaxpu=1.2 model=1 kW=0.370004 kvar=0.12003154111794118 Phases=2

New Load.load_p1rlv20220 conn=wye bus1=p1rlv20220.1.2 kV=0.2080002494301389 Vminpu=0.8 Vmaxpu=1.2 model=1 kW=6.52007 kvar=2.1407288119594026 Phases=2

New Load.load_p1rlv20221 conn=wye bus1=p1rlv20221.1.2 kV=0.2080002494301389 Vminpu=0.8 Vmaxpu=1.2 model=1 kW=13.090100000000001 kvar=4.297860946497473 Phases=2

New Load.load_p1rlv20222 conn=wye bus1=p1rlv20222.1.2 kV=0.2080002494301389 Vminpu=0.8 Vmaxpu=1.2 model=1 kW=3.46003 kvar=1.1397106083816768 Phases=2

New Load.load_p1rlv20223 conn=wye bus1=p1rlv20223.1.2 kV=0.2080002494301389 Vminpu=0.8 Vmaxpu=1.2 model=1 kW=0.880009 kvar=0.2898690452890152 Phases=2

New Load.load_p1rlv20224 conn=wye bus1=p1rlv20224.1.2 kV=0.2080002494301389 Vminpu=0.8 Vmaxpu=1.2 model=1 kW=1.91002 kvar=0.6298242311465005 Phases=2

New Load.load_p1rlv20225 conn=wye bus1=p1rlv20225.1.2 kV=0.2080002494301389 Vminpu=0.8 Vmaxpu=1.2 model=1 kW=1.29001 kvar=0.4198715805341411 Phases=2

New Load.load_p1rlv20226 conn=wye bus1=p1rlv20226.1.2.3 kV=0.48 Vminpu=0.8 Vmaxpu=1.2 model=1 kW=27.4403 kvar=9.019190451339558 Phases=3

New Load.load_p1rlv20227 conn=wye bus1=p1rlv20227.1.2 kV=0.2080002494301389 Vminpu=0.8 Vmaxpu=1.2 model=1 kW=0.410004 kvar=0.1300470018858701 Phases=2

New Load.load_p1rlv20228 conn=wye bus1=p1rlv20228.1.2 kV=0.2080002494301389 Vminpu=0.8 Vmaxpu=1.2 model=1 kW=0.520005 kvar=0.16999297526842666 Phases=2

New Load.load_p1rlv20229 conn=wye bus1=p1rlv20229.1.2 kV=0.2080002494301389 Vminpu=0.8 Vmaxpu=1.2 model=1 kW=1.21001 kvar=0.3998538659049131 Phases=2

New Load.load_p1rlv20230 conn=wye bus1=p1rlv20230.1.2 kV=0.2080002494301389 Vminpu=0.8 Vmaxpu=1.2 model=1 kW=0.3000030000000001 kvar=0.0999833933383273 Phases=2

New Load.load_p1rlv20231 conn=wye bus1=p1rlv20231.1.2 kV=0.2080002494301389 Vminpu=0.8 Vmaxpu=1.2 model=1 kW=0.850009 kvar=0.279987247081644 Phases=2

New Load.load_p1rlv20232 conn=wye bus1=p1rlv20232.1.2 kV=0.2080002494301389 Vminpu=0.8 Vmaxpu=1.2 model=1 kW=0.640006 kvar=0.20990523349064538 Phases=2

New Load.load_p1rlv20233 conn=wye bus1=p1rlv20233.1.2 kV=0.2080002494301389 Vminpu=0.8 Vmaxpu=1.2 model=1 kW=1.43001 kvar=0.4700215572468261 Phases=2

New Load.load_p1rlv20234 conn=wye bus1=p1rlv20234.1.2 kV=0.2080002494301389 Vminpu=0.8 Vmaxpu=1.2 model=1 kW=1.24001 kvar=0.4102057081472393 Phases=2

New Load.load_p1rlv20235 conn=wye bus1=p1rlv20235.1.2 kV=0.2080002494301389 Vminpu=0.8 Vmaxpu=1.2 model=1 kW=1.80002 kvar=0.5897195236393014 Phases=2

New Load.load_p1rlv20236 conn=wye bus1=p1rlv20236.1.2 kV=0.2080002494301389 Vminpu=0.8 Vmaxpu=1.2 model=1 kW=0.860009 kvar=0.2799151464745127 Phases=2

New Load.load_p1rlv20237 conn=wye bus1=p1rlv20237.1.2 kV=0.2080002494301389 Vminpu=0.8 Vmaxpu=1.2 model=1 kW=1.81002 kvar=0.6000475980409095 Phases=2

New Load.load_p1rlv20238 conn=wye bus1=p1rlv20238.1.2 kV=0.2080002494301389 Vminpu=0.8 Vmaxpu=1.2 model=1 kW=5.66006 kvar=1.860371756358676 Phases=2

New Load.load_p1rlv20239 conn=wye bus1=p1rlv20239.1.2 kV=0.2080002494301389 Vminpu=0.8 Vmaxpu=1.2 model=1 kW=1.76002 kvar=0.5797387493645775 Phases=2

New Load.load_p1rlv20240 conn=wye bus1=p1rlv20240.1.2 kV=0.2080002494301389 Vminpu=0.8 Vmaxpu=1.2 model=1 kW=2.3500200000000007 kvar=0.7699095981949263 Phases=2

New Load.load_p1rlv20241 conn=wye bus1=p1rlv20241.1.2 kV=0.2080002494301389 Vminpu=0.8 Vmaxpu=1.2 model=1 kW=0.690007 kvar=0.22996183800561726 Phases=2

New Load.load_p1rlv20242 conn=wye bus1=p1rlv20242.1.2 kV=0.2080002494301389 Vminpu=0.8 Vmaxpu=1.2 model=1 kW=3.2600300000000004 kvar=1.0703627643341271 Phases=2

New Load.load_p1rlv20243 conn=wye bus1=p1rlv20243.1.2 kV=0.2080002494301389 Vminpu=0.8 Vmaxpu=1.2 model=1 kW=1.44001 kvar=0.47023535899192964 Phases=2

New Load.load_p1rlv20244 conn=wye bus1=p1rlv20244.1.2 kV=0.2080002494301389 Vminpu=0.8 Vmaxpu=1.2 model=1 kW=16.1802 kvar=5.318174558615041 Phases=2

New Load.load_p1rlv20245 conn=wye bus1=p1rlv20245.1.2 kV=0.2080002494301389 Vminpu=0.8 Vmaxpu=1.2 model=1 kW=0.650007 kvar=0.20993347072781318 Phases=2

New Load.load_p1rlv20246 conn=wye bus1=p1rlv20246.1.2 kV=0.2080002494301389 Vminpu=0.8 Vmaxpu=1.2 model=1 kW=1.56002 kvar=0.5099805603374024 Phases=2

New Load.load_p1rlv20247 conn=wye bus1=p1rlv20247.1.2 kV=0.2080002494301389 Vminpu=0.8 Vmaxpu=1.2 model=1 kW=8.94009 kvar=2.9384654818685028 Phases=2

New Load.load_p1rlv20248 conn=wye bus1=p1rlv20248.1.2 kV=0.2080002494301389 Vminpu=0.8 Vmaxpu=1.2 model=1 kW=12.0301 kvar=3.9498320847403194 Phases=2

New Load.load_p1rlv20249 conn=wye bus1=p1rlv20249.1.2 kV=0.2080002494301389 Vminpu=0.8 Vmaxpu=1.2 model=1 kW=1.22001 kvar=0.40013137987912967 Phases=2

New Load.load_p1rlv20250 conn=wye bus1=p1rlv20250.1.2 kV=0.2080002494301389 Vminpu=0.8 Vmaxpu=1.2 model=1 kW=3.40003 kvar=1.1199470119669346 Phases=2

New Load.load_p1rlv20251 conn=wye bus1=p1rlv20251.1.2 kV=0.2080002494301389 Vminpu=0.8 Vmaxpu=1.2 model=1 kW=3.6900400000000007 kvar=1.2102366349531428 Phases=2

New Load.load_p1rlv20252 conn=wye bus1=p1rlv20252.1.2 kV=0.2080002494301389 Vminpu=0.8 Vmaxpu=1.2 model=1 kW=0.380004 kvar=0.11997720470722155 Phases=2

New Load.load_p1rlv20253 conn=wye bus1=p1rlv20253.1.2.3 kV=0.48 Vminpu=0.8 Vmaxpu=1.2 model=1 kW=21.8002 kvar=7.157640369885198 Phases=3

New Load.load_p1rlv20254 conn=wye bus1=p1rlv20254.1.2 kV=0.2080002494301389 Vminpu=0.8 Vmaxpu=1.2 model=1 kW=1.96002 kvar=0.640044658253319 Phases=2

New Load.load_p1rlv20255 conn=wye bus1=p1rlv20255.1.2 kV=0.2080002494301389 Vminpu=0.8 Vmaxpu=1.2 model=1 kW=3.56004 kvar=1.17012856180096 Phases=2

New Load.load_p1rlv20256 conn=wye bus1=p1rlv20256.1.2 kV=0.2080002494301389 Vminpu=0.8 Vmaxpu=1.2 model=1 kW=2.02002 kvar=0.660357515604133 Phases=2

New Load.load_p1rlv20257 conn=wye bus1=p1rlv20257.1.2 kV=0.2080002494301389 Vminpu=0.8 Vmaxpu=1.2 model=1 kW=0.910009 kvar=0.30007315041800386 Phases=2

New Load.load_p1rlv20258 conn=wye bus1=p1rlv20258.1.2 kV=0.2080002494301389 Vminpu=0.8 Vmaxpu=1.2 model=1 kW=3.76004 kvar=1.2398636150826106 Phases=2

New Load.load_p1rlv20259 conn=wye bus1=p1rlv20259.1.2 kV=0.2080002494301389 Vminpu=0.8 Vmaxpu=1.2 model=1 kW=5.15005 kvar=1.6909113580117276 Phases=2

New Load.load_p1rlv20260 conn=wye bus1=p1rlv20260.1.2 kV=0.2080002494301389 Vminpu=0.8 Vmaxpu=1.2 model=1 kW=3.78004 kvar=1.2397542816848268 Phases=2

New Load.load_p1rlv20261 conn=wye bus1=p1rlv20261.1.2 kV=0.2080002494301389 Vminpu=0.8 Vmaxpu=1.2 model=1 kW=8.20008 kvar=2.7010511948099927 Phases=2

New Load.load_p1rlv20640 conn=wye bus1=p1rlv20640.1.2 kV=0.2080002494301389 Vminpu=0.8 Vmaxpu=1.2 model=1 kW=1.69002 kvar=0.5500665642392765 Phases=2

New Load.load_p1rlv20641 conn=wye bus1=p1rlv20641.1.2.3 kV=0.48 Vminpu=0.8 Vmaxpu=1.2 model=1 kW=24.940199999999997 kvar=8.197447319981883 Phases=3

New Load.load_p1rlv20642 conn=wye bus1=p1rlv20642.1.2.3 kV=0.48 Vminpu=0.8 Vmaxpu=1.2 model=1 kW=24.8002 kvar=8.151431545256841 Phases=3

New Load.load_p1rlv20643 conn=wye bus1=p1rlv20643.1.2 kV=0.2080002494301389 Vminpu=0.8 Vmaxpu=1.2 model=1 kW=1.3100100000000001 kvar=0.43011442376461256 Phases=2

New Load.load_p1rlv20645 conn=wye bus1=p1rlv20645.1.2 kV=0.2080002494301389 Vminpu=0.8 Vmaxpu=1.2 model=1 kW=7.54008 kvar=1.531078545873243 Phases=2

New Load.load_p1rlv20647 conn=wye bus1=p1rlv20647.1.2 kV=0.2080002494301389 Vminpu=0.8 Vmaxpu=1.2 model=1 kW=8.68009 kvar=2.849926266650618 Phases=2

New Load.load_p1rlv20648 conn=wye bus1=p1rlv20648.1.2 kV=0.2080002494301389 Vminpu=0.8 Vmaxpu=1.2 model=1 kW=7.41007 kvar=1.5007972370435119 Phases=2

New Load.load_p1rlv20649 conn=wye bus1=p1rlv20649.1.2 kV=0.2080002494301389 Vminpu=0.8 Vmaxpu=1.2 model=1 kW=0.820008 kvar=0.27010511948099925 Phases=2

New Load.load_p1rlv20650 conn=wye bus1=p1rlv20650.1.2 kV=0.2080002494301389 Vminpu=0.8 Vmaxpu=1.2 model=1 kW=2.87003 kvar=0.5797741681037358 Phases=2

New Load.load_p1rlv20652 conn=wye bus1=p1rlv20652.1.2.3 kV=0.48 Vminpu=0.8 Vmaxpu=1.2 model=1 kW=20.630200000000002 kvar=4.189140780611635 Phases=3

New Load.load_p1rlv20653 conn=wye bus1=p1rlv20653.1.2 kV=0.2080002494301389 Vminpu=0.8 Vmaxpu=1.2 model=1 kW=6.68007 kvar=2.1908882933657736 Phases=2

New Load.load_p1rlv20654 conn=wye bus1=p1rlv20654.1.2 kV=0.2080002494301389 Vminpu=0.8 Vmaxpu=1.2 model=1 kW=6.34006 kvar=2.079373903751998 Phases=2

New Load.load_p1rlv20656 conn=wye bus1=p1rlv20656.1.2.3 kV=0.48 Vminpu=0.8 Vmaxpu=1.2 model=1 kW=33.1503 kvar=10.895976691910867 Phases=3

New Load.load_p1rlv20657 conn=wye bus1=p1rlv20657.1.2 kV=0.2080002494301389 Vminpu=0.8 Vmaxpu=1.2 model=1 kW=3.76004 kvar=1.2398636150826106 Phases=2

New Load.load_p1rlv20659 conn=wye bus1=p1rlv20659.1.2 kV=0.2080002494301389 Vminpu=0.8 Vmaxpu=1.2 model=1 kW=4.43004 kvar=1.449786002390038 Phases=2

New Load.load_p1rlv20660 conn=wye bus1=p1rlv20660.1.2 kV=0.2080002494301389 Vminpu=0.8 Vmaxpu=1.2 model=1 kW=14.8301 kvar=4.879678670365331 Phases=2

New Load.load_p1rlv20661 conn=wye bus1=p1rlv20661.1.2 kV=0.2080002494301389 Vminpu=0.8 Vmaxpu=1.2 model=1 kW=18.9002 kvar=3.837849297714808 Phases=2

New Load.load_p1rlv20663 conn=wye bus1=p1rlv20663.1.2 kV=0.2080002494301389 Vminpu=0.8 Vmaxpu=1.2 model=1 kW=10.6301 kvar=3.5014834374725257 Phases=2

New Load.load_p1rlv20664 conn=wye bus1=p1rlv20664.1.2 kV=0.2080002494301389 Vminpu=0.8 Vmaxpu=1.2 model=1 kW=2.60003 kvar=0.8601117308360952 Phases=2

New Load.load_p1rlv20665 conn=wye bus1=p1rlv20665.1.2.3 kV=0.48 Vminpu=0.8 Vmaxpu=1.2 model=1 kW=22.7102 kvar=4.611502794730364 Phases=3

New Load.load_p1rlv20669 conn=wye bus1=p1rlv20669.1.2 kV=0.2080002494301389 Vminpu=0.8 Vmaxpu=1.2 model=1 kW=0.770008 kvar=0.25007095327480516 Phases=2

New Load.load_p1rlv20671 conn=wye bus1=p1rlv20671.1.2 kV=0.2080002494301389 Vminpu=0.8 Vmaxpu=1.2 model=1 kW=1.47001 kvar=0.4800318609396647 Phases=2

New Load.load_p1rlv20678 conn=wye bus1=p1rlv20678.1.2 kV=0.2080002494301389 Vminpu=0.8 Vmaxpu=1.2 model=1 kW=2.13002 kvar=0.700103717713082 Phases=2

New Load.load_p1rlv20684 conn=wye bus1=p1rlv20684.1.2 kV=0.2080002494301389 Vminpu=0.8 Vmaxpu=1.2 model=1 kW=10.8301 kvar=3.559681727497606 Phases=2

New Load.load_p1rlv20690 conn=wye bus1=p1rlv20690.1.2 kV=0.2080002494301389 Vminpu=0.8 Vmaxpu=1.2 model=1 kW=10.180100000000001 kvar=3.3388066165912806 Phases=2

New Load.load_p1rlv20691 conn=wye bus1=p1rlv20691.1.2 kV=0.2080002494301389 Vminpu=0.8 Vmaxpu=1.2 model=1 kW=0.320003 kvar=0.10998628040655055 Phases=2

New Load.load_p1rlv20833 conn=wye bus1=p1rlv20833.1.2 kV=0.2080002494301389 Vminpu=0.8 Vmaxpu=1.2 model=1 kW=1.25001 kvar=0.40997059545635767 Phases=2

New Load.load_p1rlv20845 conn=wye bus1=p1rlv20845.1.2 kV=0.2080002494301389 Vminpu=0.8 Vmaxpu=1.2 model=1 kW=1.64002 kvar=0.5402115565350929 Phases=2

New Load.load_p1rlv20846 conn=wye bus1=p1rlv20846.1.2 kV=0.2080002494301389 Vminpu=0.8 Vmaxpu=1.2 model=1 kW=1.77002 kvar=0.5798909741180854 Phases=2

New Load.load_p1rlv20857 conn=wye bus1=p1rlv20857.1.2 kV=0.2080002494301389 Vminpu=0.8 Vmaxpu=1.2 model=1 kW=1.47001 kvar=0.4800318609396647 Phases=2

New Load.load_p1rlv20859 conn=wye bus1=p1rlv20859.1.2 kV=0.2080002494301389 Vminpu=0.8 Vmaxpu=1.2 model=1 kW=5.090050000000001 kvar=1.0309123903570856 Phases=2

New Load.load_p1rlv20870 conn=wye bus1=p1rlv20870.1.2 kV=0.2080002494301389 Vminpu=0.8 Vmaxpu=1.2 model=1 kW=14.3101 kvar=2.9132688655833876 Phases=2

New Load.load_p1rlv20871 conn=wye bus1=p1rlv20871.1.2 kV=0.2080002494301389 Vminpu=0.8 Vmaxpu=1.2 model=1 kW=13.590100000000001 kvar=2.7595875038821815 Phases=2

New Load.load_p1rlv20883 conn=wye bus1=p1rlv20883.1.2 kV=0.2080002494301389 Vminpu=0.8 Vmaxpu=1.2 model=1 kW=5.770060000000001 kvar=1.1686380972885935 Phases=2

New Load.load_p1rlv20884 conn=wye bus1=p1rlv20884.1.2 kV=0.2080002494301389 Vminpu=0.8 Vmaxpu=1.2 model=1 kW=2.5500300000000005 kvar=0.5204681994500374 Phases=2

New Load.load_p1rlv20886 conn=wye bus1=p1rlv20886.1.2 kV=0.2080002494301389 Vminpu=0.8 Vmaxpu=1.2 model=1 kW=3.65004 kvar=0.7392602157737106 Phases=2

New Load.load_p1rlv20888 conn=wye bus1=p1rlv20888.1.2 kV=0.2080002494301389 Vminpu=0.8 Vmaxpu=1.2 model=1 kW=7.57008 kvar=1.5411267827601127 Phases=2

New Load.load_p1rlv20889 conn=wye bus1=p1rlv20889.1.2 kV=0.2080002494301389 Vminpu=0.8 Vmaxpu=1.2 model=1 kW=14.8101 kvar=3.0073190698556673 Phases=2

New Load.load_p1rlv20891 conn=wye bus1=p1rlv20891.1.2 kV=0.2080002494301389 Vminpu=0.8 Vmaxpu=1.2 model=1 kW=1.42001 kvar=0.2898279815927842 Phases=2

New Load.load_p1rlv20892 conn=wye bus1=p1rlv20892.1.2 kV=0.2080002494301389 Vminpu=0.8 Vmaxpu=1.2 model=1 kW=2.33002 kvar=0.469460711936096 Phases=2

New Load.load_p1rlv20893 conn=wye bus1=p1rlv20893.1.2.3 kV=0.48 Vminpu=0.8 Vmaxpu=1.2 model=1 kW=22.8202 kvar=4.633839247400105 Phases=3

New Load.load_p1rlv20894 conn=wye bus1=p1rlv20894.1.2 kV=0.2080002494301389 Vminpu=0.8 Vmaxpu=1.2 model=1 kW=2.54003 kvar=0.5197487439894416 Phases=2

New Load.load_p1rlv20895 conn=wye bus1=p1rlv20895.1.2.3 kV=0.48 Vminpu=0.8 Vmaxpu=1.2 model=1 kW=64.2006 kvar=13.036487847899455 Phases=3

New Load.load_p1rlv20897 conn=wye bus1=p1rlv20897.1.2 kV=0.2080002494301389 Vminpu=0.8 Vmaxpu=1.2 model=1 kW=4.41004 kvar=0.890871270441145 Phases=2

New Load.load_p1rlv20899 conn=wye bus1=p1rlv20899.1.2 kV=0.2080002494301389 Vminpu=0.8 Vmaxpu=1.2 model=1 kW=1.65002 kvar=0.32983487350023794 Phases=2

New Load.load_p1rlv20900 conn=wye bus1=p1rlv20900.1.2 kV=0.2080002494301389 Vminpu=0.8 Vmaxpu=1.2 model=1 kW=2.07002 kvar=0.4203354886856016 Phases=2

New Load.load_p1rlv20903 conn=wye bus1=p1rlv20903.1.2 kV=0.2080002494301389 Vminpu=0.8 Vmaxpu=1.2 model=1 kW=8.53009 kvar=1.7321086504875136 Phases=2

New Load.load_p1rlv20904 conn=wye bus1=p1rlv20904.1.2 kV=0.2080002494301389 Vminpu=0.8 Vmaxpu=1.2 model=1 kW=1.03001 kvar=0.21022789932492286 Phases=2

New Load.load_p1rlv20906 conn=wye bus1=p1rlv20906.1.2 kV=0.2080002494301389 Vminpu=0.8 Vmaxpu=1.2 model=1 kW=4.83005 kvar=0.9807834837952725 Phases=2

New Load.load_p1rlv20911 conn=wye bus1=p1rlv20911.1.2 kV=0.2080002494301389 Vminpu=0.8 Vmaxpu=1.2 model=1 kW=4.62005 kvar=0.940555818788026 Phases=2

New Load.load_p1rlv20913 conn=wye bus1=p1rlv20913.1.2 kV=0.2080002494301389 Vminpu=0.8 Vmaxpu=1.2 model=1 kW=3.55004 kvar=0.7208663675971405 Phases=2

New Load.load_p1rlv20914 conn=wye bus1=p1rlv20914.1.2 kV=0.2080002494301389 Vminpu=0.8 Vmaxpu=1.2 model=1 kW=3.0500300000000005 kvar=0.6193350066935321 Phases=2

New Load.load_p1rlv20917 conn=wye bus1=p1rlv20917.1.2 kV=0.2080002494301389 Vminpu=0.8 Vmaxpu=1.2 model=1 kW=1.82002 kvar=0.3695708235271005 Phases=2

New Load.load_p1rlv20918 conn=wye bus1=p1rlv20917.1.2 kV=0.2080002494301389 Vminpu=0.8 Vmaxpu=1.2 model=1 kW=1.7200200000000003 kvar=0.3501639201809029 Phases=2

New Load.load_p1rlv20920 conn=wye bus1=p1rlv20920.1.2.3 kV=0.48 Vminpu=0.8 Vmaxpu=1.2 model=1 kW=22.0502 kvar=4.477484078711921 Phases=3

New Load.load_p1rlv20921 conn=wye bus1=p1rlv20921.1.2 kV=0.2080002494301389 Vminpu=0.8 Vmaxpu=1.2 model=1 kW=2.58003 kvar=0.5198336154266855 Phases=2

New Load.load_p1rlv20923 conn=wye bus1=p1rlv20923.1.2 kV=0.2080002494301389 Vminpu=0.8 Vmaxpu=1.2 model=1 kW=1.80002 kvar=0.3701924641947718 Phases=2

New Load.load_p1rlv20924 conn=wye bus1=p1rlv20924.1.2.3 kV=0.48 Vminpu=0.8 Vmaxpu=1.2 model=1 kW=19.7602 kvar=4.012479745860052 Phases=3

New Load.load_p1rlv20926 conn=wye bus1=p1rlv20926.1.2 kV=0.2080002494301389 Vminpu=0.8 Vmaxpu=1.2 model=1 kW=2.07002 kvar=0.4203354886856016 Phases=2

New Load.load_p1rlv20927 conn=wye bus1=p1rlv20927.1.2 kV=0.2080002494301389 Vminpu=0.8 Vmaxpu=1.2 model=1 kW=5.82006 kvar=1.1787648385814788 Phases=2

New Load.load_p1rlv20928 conn=wye bus1=p1rlv20928.1.2 kV=0.2080002494301389 Vminpu=0.8 Vmaxpu=1.2 model=1 kW=4.62005 kvar=0.940555818788026 Phases=2

New Load.load_p1rlv20948 conn=wye bus1=p1rlv20948.1.2.3 kV=0.48 Vminpu=0.8 Vmaxpu=1.2 model=1 kW=36.0304 kvar=7.316284766107429 Phases=3

New Load.load_p1rlv20949 conn=wye bus1=p1rlv20949.1.2 kV=0.2080002494301389 Vminpu=0.8 Vmaxpu=1.2 model=1 kW=2.70003 kvar=0.5496756371472675 Phases=2

New Load.load_p1rlv20950 conn=wye bus1=p1rlv20950.1.2 kV=0.2080002494301389 Vminpu=0.8 Vmaxpu=1.2 model=1 kW=1.57002 kvar=0.3196267240860112 Phases=2

New Load.load_p1rlv20951 conn=wye bus1=p1rlv20951.1.2 kV=0.2080002494301389 Vminpu=0.8 Vmaxpu=1.2 model=1 kW=1.26001 kvar=0.2597851280568115 Phases=2

New Load.load_p1rlv20952 conn=wye bus1=p1rlv20952.1.2.3 kV=0.48 Vminpu=0.8 Vmaxpu=1.2 model=1 kW=53.9705 kvar=10.95917744374753 Phases=3

New Load.load_p1rlv20953 conn=wye bus1=p1rlv20953.1.2 kV=0.2080002494301389 Vminpu=0.8 Vmaxpu=1.2 model=1 kW=3.70004 kvar=0.7493869570665965 Phases=2

New Load.load_p1rlv20954 conn=wye bus1=p1rlv20954.1.2 kV=0.2080002494301389 Vminpu=0.8 Vmaxpu=1.2 model=1 kW=4.81005 kvar=0.9792362671748885 Phases=2

New Load.load_p1rlv20955 conn=wye bus1=p1rlv20955.1.2 kV=0.2080002494301389 Vminpu=0.8 Vmaxpu=1.2 model=1 kW=2.5300300000000004 kvar=0.5097594376956769 Phases=2

New Load.load_p1rlv20956 conn=wye bus1=p1rlv20956.1.2 kV=0.2080002494301389 Vminpu=0.8 Vmaxpu=1.2 model=1 kW=0.770008 kvar=0.15994666868925372 Phases=2

New Load.load_p1rlv20957 conn=wye bus1=p1rlv20957.1.2 kV=0.2080002494301389 Vminpu=0.8 Vmaxpu=1.2 model=1 kW=7.84008 kvar=1.5919961440634443 Phases=2

New Load.load_p1rlv20958 conn=wye bus1=p1rlv20958.1.2 kV=0.2080002494301389 Vminpu=0.8 Vmaxpu=1.2 model=1 kW=2.85003 kvar=0.5802128332421591 Phases=2

New Load.load_p1rlv20959 conn=wye bus1=p1rlv20959.1.2 kV=0.2080002494301389 Vminpu=0.8 Vmaxpu=1.2 model=1 kW=4.61005 kvar=0.9409239980998833 Phases=2

New Load.load_p1rlv20960 conn=wye bus1=p1rlv20960.1.2 kV=0.2080002494301389 Vminpu=0.8 Vmaxpu=1.2 model=1 kW=11.6101 kvar=2.357531355826853 Phases=2

New Load.load_p1rlv20962 conn=wye bus1=p1rlv20962.1.2.3 kV=0.48 Vminpu=0.8 Vmaxpu=1.2 model=1 kW=89.17090000000002 kvar=18.106923521528735 Phases=3

New Load.load_p1rlv20963 conn=wye bus1=p1rlv20963.1.2 kV=0.2080002494301389 Vminpu=0.8 Vmaxpu=1.2 model=1 kW=4.66005 kvar=0.951129136852173 Phases=2

New Load.load_p1rlv20970 conn=wye bus1=p1rlv20970.1.2 kV=0.2080002494301389 Vminpu=0.8 Vmaxpu=1.2 model=1 kW=2.65003 kvar=0.5394965717823037 Phases=2

New Load.load_p1rlv20972 conn=wye bus1=p1rlv20972.1.2 kV=0.2080002494301389 Vminpu=0.8 Vmaxpu=1.2 model=1 kW=2.69003 kvar=0.8803459652755448 Phases=2

New Load.load_p1rlv20977 conn=wye bus1=p1rlv20977.1.2 kV=0.2080002494301389 Vminpu=0.8 Vmaxpu=1.2 model=1 kW=1.78002 kvar=0.35958147291422454 Phases=2

New Load.load_p1rlv20981 conn=wye bus1=p1rlv20981.1.2 kV=0.2080002494301389 Vminpu=0.8 Vmaxpu=1.2 model=1 kW=1.93002 kvar=0.6302481563055841 Phases=2

New Load.load_p1rlv20990 conn=wye bus1=p1rlv20990.1.2 kV=0.2080002494301389 Vminpu=0.8 Vmaxpu=1.2 model=1 kW=9.05009 kvar=2.9810387712849105 Phases=2

New Load.load_p1rlv20996 conn=wye bus1=p1rlv20996.1.2 kV=0.2080002494301389 Vminpu=0.8 Vmaxpu=1.2 model=1 kW=0.410004 kvar=0.1300470018858701 Phases=2

New Load.load_p1rlv21010 conn=wye bus1=p1rlv21010.1.2 kV=0.2080002494301389 Vminpu=0.8 Vmaxpu=1.2 model=1 kW=5.14005 kvar=1.6894527348246153 Phases=2

New Load.load_p1rlv21014 conn=wye bus1=p1rlv21014.1.2 kV=0.2080002494301389 Vminpu=0.8 Vmaxpu=1.2 model=1 kW=1.69002 kvar=0.5500665642392765 Phases=2

New Load.load_p1rlv21015 conn=wye bus1=p1rlv21015.1.2 kV=0.2080002494301389 Vminpu=0.8 Vmaxpu=1.2 model=1 kW=1.9700200000000003 kvar=0.4000296226222012 Phases=2

New Load.load_p1rlv21025 conn=wye bus1=p1rlv21025.1.2 kV=0.2080002494301389 Vminpu=0.8 Vmaxpu=1.2 model=1 kW=4.07004 kvar=0.8307064585474014 Phases=2

New Load.load_p1rlv21027 conn=wye bus1=p1rlv21027.1.2 kV=0.2080002494301389 Vminpu=0.8 Vmaxpu=1.2 model=1 kW=1.0600100000000001 kvar=0.3499107480604964 Phases=2

New Load.load_p1rlv21056 conn=wye bus1=p1rlv21056.1.2 kV=0.2080002494301389 Vminpu=0.8 Vmaxpu=1.2 model=1 kW=13.0701 kvar=4.300570339346458 Phases=2

New Load.load_p1rlv21080 conn=wye bus1=p1rlv21080.1.2 kV=0.2080002494301389 Vminpu=0.8 Vmaxpu=1.2 model=1 kW=1.35001 kvar=0.43988255331319676 Phases=2

New Load.load_p1rlv21099 conn=wye bus1=p1rlv21099.1.2 kV=0.2080002494301389 Vminpu=0.8 Vmaxpu=1.2 model=1 kW=2.03002 kvar=0.4100839213297234 Phases=2

New Load.load_p1rlv21110 conn=wye bus1=p1rlv21110.1.2 kV=0.2080002494301389 Vminpu=0.8 Vmaxpu=1.2 model=1 kW=1.08001 kvar=0.34997480711346873 Phases=2

New Load.load_p1rlv21111 conn=wye bus1=p1rlv21111.1.2 kV=0.2080002494301389 Vminpu=0.8 Vmaxpu=1.2 model=1 kW=0.760008 kvar=0.2500721388869269 Phases=2

New Load.load_p1rlv21120 conn=wye bus1=p1rlv21120.1.2 kV=0.2080002494301389 Vminpu=0.8 Vmaxpu=1.2 model=1 kW=1.9900200000000001 kvar=0.649841160201054 Phases=2

New Load.load_p1rlv21131 conn=wye bus1=p1rlv21131.1.2 kV=0.2080002494301389 Vminpu=0.8 Vmaxpu=1.2 model=1 kW=2.23002 kvar=0.7298019388199278 Phases=2

New Load.load_p1rlv21139 conn=wye bus1=p1rlv21139.1.2 kV=0.2080002494301389 Vminpu=0.8 Vmaxpu=1.2 model=1 kW=0.440004 kvar=0.14004246738579937 Phases=2

New Load.load_p1rlv21191 conn=wye bus1=p1rlv21191.1.2 kV=0.2080002494301389 Vminpu=0.8 Vmaxpu=1.2 model=1 kW=1.12001 kvar=0.3701129150603398 Phases=2

New Load.load_p1rlv21193 conn=wye bus1=p1rlv21193.1.2 kV=0.2080002494301389 Vminpu=0.8 Vmaxpu=1.2 model=1 kW=3.18003 kvar=1.0395722370801335 Phases=2

New Load.load_p1rlv21194 conn=wye bus1=p1rlv21194.1.2 kV=0.2080002494301389 Vminpu=0.8 Vmaxpu=1.2 model=1 kW=2.96003 kvar=0.9697600479761563 Phases=2

New Load.load_p1rlv21195 conn=wye bus1=p1rlv21195.1.2 kV=0.2080002494301389 Vminpu=0.8 Vmaxpu=1.2 model=1 kW=2.61003 kvar=0.8597263258394949 Phases=2

New Load.load_p1rlv21196 conn=wye bus1=p1rlv21196.1.2 kV=0.2080002494301389 Vminpu=0.8 Vmaxpu=1.2 model=1 kW=1.88002 kvar=0.6199318075413053 Phases=2

New Load.load_p1rlv21197 conn=wye bus1=p1rlv21197.1.2 kV=0.2080002494301389 Vminpu=0.8 Vmaxpu=1.2 model=1 kW=5.770060000000001 kvar=1.9006189521474606 Phases=2

New Load.load_p1rlv21198 conn=wye bus1=p1rlv21198.1.2 kV=0.2080002494301389 Vminpu=0.8 Vmaxpu=1.2 model=1 kW=3.3200300000000005 kvar=1.0900625112260416 Phases=2

New Load.load_p1rlv21204 conn=wye bus1=p1rlv21204.1.2 kV=0.2080002494301389 Vminpu=0.8 Vmaxpu=1.2 model=1 kW=1.35001 kvar=0.26986362442519257 Phases=2

New Load.load_p1rlv21205 conn=wye bus1=p1rlv21205.1.2 kV=0.2080002494301389 Vminpu=0.8 Vmaxpu=1.2 model=1 kW=1.19001 kvar=0.23976744483355233 Phases=2

New Load.load_p1rlv21206 conn=wye bus1=p1rlv21206.1.2 kV=0.2080002494301389 Vminpu=0.8 Vmaxpu=1.2 model=1 kW=1.27001 kvar=0.25987334887935604 Phases=2

New Load.load_p1rlv21208 conn=wye bus1=p1rlv21208.1.2 kV=0.2080002494301389 Vminpu=0.8 Vmaxpu=1.2 model=1 kW=1.91002 kvar=0.3898403823929759 Phases=2

New Load.load_p1rlv21210 conn=wye bus1=p1rlv21210.1.2 kV=0.2080002494301389 Vminpu=0.8 Vmaxpu=1.2 model=1 kW=6.54007 kvar=1.3314360004287842 Phases=2

New Load.load_p1rlv21212 conn=wye bus1=p1rlv21212.1.2 kV=0.2080002494301389 Vminpu=0.8 Vmaxpu=1.2 model=1 kW=2.83003 kvar=0.5702045040817287 Phases=2

New Load.load_p1rlv21213 conn=wye bus1=p1rlv21213.1.2 kV=0.2080002494301389 Vminpu=0.8 Vmaxpu=1.2 model=1 kW=0.710007 kvar=0.14003398756892257 Phases=2

New Load.load_p1rlv21214 conn=wye bus1=p1rlv21214.1.2 kV=0.2080002494301389 Vminpu=0.8 Vmaxpu=1.2 model=1 kW=2.36002 kvar=0.4804559568524403 Phases=2

New Load.load_p1rlv21215 conn=wye bus1=p1rlv21215.1.2 kV=0.2080002494301389 Vminpu=0.8 Vmaxpu=1.2 model=1 kW=2.92003 kvar=0.5898746577868357 Phases=2

New Load.load_p1rlv21217 conn=wye bus1=p1rlv21217.1.2 kV=0.2080002494301389 Vminpu=0.8 Vmaxpu=1.2 model=1 kW=1.60002 kvar=0.31983999848356426 Phases=2

New Load.load_p1rlv21218 conn=wye bus1=p1rlv21218.1.2 kV=0.2080002494301389 Vminpu=0.8 Vmaxpu=1.2 model=1 kW=2.42002 kvar=0.49013832927219847 Phases=2

New Load.load_p1rlv21220 conn=wye bus1=p1rlv21220.1.2 kV=0.2080002494301389 Vminpu=0.8 Vmaxpu=1.2 model=1 kW=3.48003 kvar=0.71028378024263 Phases=2

New Load.load_p1rlv21222 conn=wye bus1=p1rlv21222.1.2 kV=0.2080002494301389 Vminpu=0.8 Vmaxpu=1.2 model=1 kW=3.27003 kvar=1.079441367043957 Phases=2

New Load.load_p1rlv21226 conn=wye bus1=p1rlv21226.1.2 kV=0.2080002494301389 Vminpu=0.8 Vmaxpu=1.2 model=1 kW=1.56002 kvar=0.32002595041741205 Phases=2

New Load.load_p1rlv21228 conn=wye bus1=p1rlv21228.1.2 kV=0.2080002494301389 Vminpu=0.8 Vmaxpu=1.2 model=1 kW=1.9800200000000001 kvar=0.39998343164662364 Phases=2

New Load.load_p1rlv21230 conn=wye bus1=p1rlv21230.1.2 kV=0.2080002494301389 Vminpu=0.8 Vmaxpu=1.2 model=1 kW=2.3500200000000007 kvar=0.47964560341312734 Phases=2

New Load.load_p1rlv21235 conn=wye bus1=p1rlv21235.1.2 kV=0.2080002494301389 Vminpu=0.8 Vmaxpu=1.2 model=1 kW=2.96003 kvar=0.9697600479761563 Phases=2

New Load.load_p1rlv21238 conn=wye bus1=p1rlv21238.1.2 kV=0.2080002494301389 Vminpu=0.8 Vmaxpu=1.2 model=1 kW=2.11002 kvar=0.42956063002762096 Phases=2

New Load.load_p1rlv21240 conn=wye bus1=p1rlv21240.1.2 kV=0.2080002494301389 Vminpu=0.8 Vmaxpu=1.2 model=1 kW=1.14001 kvar=0.23029318487261108 Phases=2

New Load.load_p1rlv21242 conn=wye bus1=p1rlv21242.1.2 kV=0.2080002494301389 Vminpu=0.8 Vmaxpu=1.2 model=1 kW=2.46002 kvar=0.49952836633286324 Phases=2

New Load.load_p1rlv21243 conn=wye bus1=p1rlv21243.1.2 kV=0.2080002494301389 Vminpu=0.8 Vmaxpu=1.2 model=1 kW=2.60003 kvar=0.5306733382023273 Phases=2

New Load.load_p1rlv21250 conn=wye bus1=p1rlv21250.1.2 kV=0.2080002494301389 Vminpu=0.8 Vmaxpu=1.2 model=1 kW=2.28002 kvar=0.46058636974522216 Phases=2

New Load.load_p1rlv21255 conn=wye bus1=p1rlv21255.1.2 kV=0.2080002494301389 Vminpu=0.8 Vmaxpu=1.2 model=1 kW=1.63002 kvar=0.3301358168446 Phases=2

New Load.load_p1rlv21256 conn=wye bus1=p1rlv21256.1.2 kV=0.2080002494301389 Vminpu=0.8 Vmaxpu=1.2 model=1 kW=16.2702 kvar=5.347756128081139 Phases=2

New Load.load_p1rlv21257 conn=wye bus1=p1rlv21257.1.2 kV=0.2080002494301389 Vminpu=0.8 Vmaxpu=1.2 model=1 kW=1.91002 kvar=0.3898403823929759 Phases=2

New Load.load_p1rlv21258 conn=wye bus1=p1rlv21258.1.2 kV=0.2080002494301389 Vminpu=0.8 Vmaxpu=1.2 model=1 kW=2.07002 kvar=0.4203354886856016 Phases=2

New Load.load_p1rlv21259 conn=wye bus1=p1rlv21259.1.2 kV=0.2080002494301389 Vminpu=0.8 Vmaxpu=1.2 model=1 kW=1.84002 kvar=0.36976324162285545 Phases=2

New Load.load_p1rlv21260 conn=wye bus1=p1rlv21260.1.2 kV=0.2080002494301389 Vminpu=0.8 Vmaxpu=1.2 model=1 kW=2.20002 kvar=0.45017485295514287 Phases=2

New Load.load_p1rlv21263 conn=wye bus1=p1rlv21263.1.2 kV=0.2080002494301389 Vminpu=0.8 Vmaxpu=1.2 model=1 kW=2.14002 kvar=0.4300500713784323 Phases=2

New Load.load_p1rlv21265 conn=wye bus1=p1rlv21265.1.2 kV=0.2080002494301389 Vminpu=0.8 Vmaxpu=1.2 model=1 kW=2.67003 kvar=0.5393722093713369 Phases=2

New Load.load_p1rlv21267 conn=wye bus1=p1rlv21267.1.2 kV=0.2080002494301389 Vminpu=0.8 Vmaxpu=1.2 model=1 kW=1.63002 kvar=0.3301358168446 Phases=2

New Load.load_p1rlv21270 conn=wye bus1=p1rlv21270.1.2 kV=0.2080002494301389 Vminpu=0.8 Vmaxpu=1.2 model=1 kW=2.40002 kvar=0.4898507421654172 Phases=2

New Load.load_p1rlv21272 conn=wye bus1=p1rlv21272.1.2 kV=0.2080002494301389 Vminpu=0.8 Vmaxpu=1.2 model=1 kW=2.39002 kvar=0.49029398470315966 Phases=2

New Load.load_p1rlv21273 conn=wye bus1=p1rlv21273.1.2 kV=0.2080002494301389 Vminpu=0.8 Vmaxpu=1.2 model=1 kW=3.12003 kvar=0.6302766165192346 Phases=2

New Load.load_p1rlv21274 conn=wye bus1=p1rlv21274.1.2 kV=0.2080002494301389 Vminpu=0.8 Vmaxpu=1.2 model=1 kW=2.04002 kvar=0.4099544614599067 Phases=2

New Load.load_p1rlv21278 conn=wye bus1=p1rlv21278.1.2 kV=0.2080002494301389 Vminpu=0.8 Vmaxpu=1.2 model=1 kW=2.13002 kvar=0.4302849006959229 Phases=2

New Load.load_p1rlv21280 conn=wye bus1=p1rlv21280.1.2 kV=0.2080002494301389 Vminpu=0.8 Vmaxpu=1.2 model=1 kW=0.890009 kvar=0.17979053444731863 Phases=2

New Load.load_p1rlv21281 conn=wye bus1=p1rlv21281.1.2 kV=0.2080002494301389 Vminpu=0.8 Vmaxpu=1.2 model=1 kW=0.870009 kvar=0.1798245473795246 Phases=2

New Load.load_p1rlv21282 conn=wye bus1=p1rlv21282.1.2 kV=0.2080002494301389 Vminpu=0.8 Vmaxpu=1.2 model=1 kW=2.09002 kvar=0.42000226641916955 Phases=2

New Load.load_p1rlv21283 conn=wye bus1=p1rlv21283.1.2 kV=0.2080002494301389 Vminpu=0.8 Vmaxpu=1.2 model=1 kW=1.24001 kvar=0.249841622564561 Phases=2

New Load.load_p1rlv21285 conn=wye bus1=p1rlv21285.1.2 kV=0.2080002494301389 Vminpu=0.8 Vmaxpu=1.2 model=1 kW=2.94003 kvar=0.6000682817178988 Phases=2

New Load.load_p1rlv21286 conn=wye bus1=p1rlv21286.1.2 kV=0.2080002494301389 Vminpu=0.8 Vmaxpu=1.2 model=1 kW=2.33002 kvar=0.469460711936096 Phases=2

New Load.load_p1rlv21290 conn=wye bus1=p1rlv21290.1.2 kV=0.2080002494301389 Vminpu=0.8 Vmaxpu=1.2 model=1 kW=2.11002 kvar=0.42956063002762096 Phases=2

New Load.load_p1rlv21291 conn=wye bus1=p1rlv21291.1.2 kV=0.2080002494301389 Vminpu=0.8 Vmaxpu=1.2 model=1 kW=2.54003 kvar=0.5197487439894416 Phases=2

New Load.load_p1rlv21293 conn=wye bus1=p1rlv21293.1.2 kV=0.2080002494301389 Vminpu=0.8 Vmaxpu=1.2 model=1 kW=2.1200200000000002 kvar=0.4304884217173018 Phases=2

New Load.load_p1rlv21295 conn=wye bus1=p1rlv21295.1.2 kV=0.2080002494301389 Vminpu=0.8 Vmaxpu=1.2 model=1 kW=2.1200200000000002 kvar=0.4304884217173018 Phases=2

New Load.load_p1rlv21296 conn=wye bus1=p1rlv21296.1.2 kV=0.2080002494301389 Vminpu=0.8 Vmaxpu=1.2 model=1 kW=2.98003 kvar=0.6097828960881785 Phases=2

New Load.load_p1rlv21297 conn=wye bus1=p1rlv21297.1.2 kV=0.2080002494301389 Vminpu=0.8 Vmaxpu=1.2 model=1 kW=2.48002 kvar=0.499683245129122 Phases=2

New Load.load_p1rlv21300 conn=wye bus1=p1rlv21300.1.2 kV=0.2080002494301389 Vminpu=0.8 Vmaxpu=1.2 model=1 kW=2.02002 kvar=0.4101825556539014 Phases=2

New Load.load_p1rlv21301 conn=wye bus1=p1rlv21301.1.2 kV=0.2080002494301389 Vminpu=0.8 Vmaxpu=1.2 model=1 kW=1.41001 kvar=0.2899829315447996 Phases=2

New Load.load_p1rlv21302 conn=wye bus1=p1rlv21302.1.2 kV=0.2080002494301389 Vminpu=0.8 Vmaxpu=1.2 model=1 kW=2.91003 kvar=0.5893824192907394 Phases=2

New Load.load_p1rlv21303 conn=wye bus1=p1rlv21303.1.2 kV=0.2080002494301389 Vminpu=0.8 Vmaxpu=1.2 model=1 kW=1.49001 kvar=0.3002125112196043 Phases=2

New Load.load_p1rlv21304 conn=wye bus1=p1rlv21304.1.2 kV=0.2080002494301389 Vminpu=0.8 Vmaxpu=1.2 model=1 kW=2.20002 kvar=0.45017485295514287 Phases=2

New Load.load_p1rlv21306 conn=wye bus1=p1rlv21306.1.2 kV=0.2080002494301389 Vminpu=0.8 Vmaxpu=1.2 model=1 kW=2.36002 kvar=0.4804559568524403 Phases=2

New Load.load_p1rlv21307 conn=wye bus1=p1rlv21307.1.2 kV=0.2080002494301389 Vminpu=0.8 Vmaxpu=1.2 model=1 kW=2.36002 kvar=0.4804559568524403 Phases=2

New Load.load_p1rlv21309 conn=wye bus1=p1rlv21309.1.2 kV=0.2080002494301389 Vminpu=0.8 Vmaxpu=1.2 model=1 kW=0.800008 kvar=0.15991959944678147 Phases=2

New Load.load_p1rlv21311 conn=wye bus1=p1rlv21311.1.2 kV=0.2080002494301389 Vminpu=0.8 Vmaxpu=1.2 model=1 kW=1.77002 kvar=0.36034298554586675 Phases=2

New Load.load_p1rlv21312 conn=wye bus1=p1rlv21312.1.2 kV=0.2080002494301389 Vminpu=0.8 Vmaxpu=1.2 model=1 kW=1.54002 kvar=0.31028870378615914 Phases=2

New Load.load_p1rlv21314 conn=wye bus1=p1rlv21314.1.2 kV=0.2080002494301389 Vminpu=0.8 Vmaxpu=1.2 model=1 kW=2.73003 kvar=0.5600443875194212 Phases=2

New Load.load_p1rlv21316 conn=wye bus1=p1rlv21316.1.2 kV=0.2080002494301389 Vminpu=0.8 Vmaxpu=1.2 model=1 kW=1.87002 kvar=0.3797237565588007 Phases=2

New Load.load_p1rlv21318 conn=wye bus1=p1rlv21318.1.2 kV=0.2080002494301389 Vminpu=0.8 Vmaxpu=1.2 model=1 kW=2.8000300000000005 kvar=0.5700337678771953 Phases=2

New Load.load_p1rlv21319 conn=wye bus1=p1rlv21319.1.2 kV=0.2080002494301389 Vminpu=0.8 Vmaxpu=1.2 model=1 kW=2.01002 kvar=0.41025065989755577 Phases=2

New Load.load_p1rlv21320 conn=wye bus1=p1rlv21320.1.2 kV=0.2080002494301389 Vminpu=0.8 Vmaxpu=1.2 model=1 kW=1.85002 kvar=0.38047547394451825 Phases=2

New Load.load_p1rlv21325 conn=wye bus1=p1rlv21325.1.2 kV=0.2080002494301389 Vminpu=0.8 Vmaxpu=1.2 model=1 kW=1.7200200000000003 kvar=0.3501639201809029 Phases=2

New Load.load_p1rlv21328 conn=wye bus1=p1rlv21328.1.2 kV=0.2080002494301389 Vminpu=0.8 Vmaxpu=1.2 model=1 kW=0.720007 kvar=0.14992932004061535 Phases=2

New Load.load_p1rlv21329 conn=wye bus1=p1rlv21329.1.2 kV=0.2080002494301389 Vminpu=0.8 Vmaxpu=1.2 model=1 kW=3.11003 kvar=0.6298893844622836 Phases=2

New Load.load_p1rlv21332 conn=wye bus1=p1rlv21332.1.2 kV=0.2080002494301389 Vminpu=0.8 Vmaxpu=1.2 model=1 kW=2.91003 kvar=0.5893824192907394 Phases=2

New Load.load_p1rlv21333 conn=wye bus1=p1rlv21333.1.2 kV=0.2080002494301389 Vminpu=0.8 Vmaxpu=1.2 model=1 kW=2.33002 kvar=0.469460711936096 Phases=2

New Load.load_p1rlv21334 conn=wye bus1=p1rlv21334.1.2 kV=0.2080002494301389 Vminpu=0.8 Vmaxpu=1.2 model=1 kW=2.87003 kvar=0.5797741681037358 Phases=2

New Load.load_p1rlv21335 conn=wye bus1=p1rlv21335.1.2 kV=0.2080002494301389 Vminpu=0.8 Vmaxpu=1.2 model=1 kW=2.26002 kvar=0.4600978261225126 Phases=2

New Load.load_p1rlv21338 conn=wye bus1=p1rlv21338.1.2 kV=0.2080002494301389 Vminpu=0.8 Vmaxpu=1.2 model=1 kW=10.9501 kvar=3.5991238201190696 Phases=2

New Load.load_p1rlv21339 conn=wye bus1=p1rlv21339.1.2 kV=0.2080002494301389 Vminpu=0.8 Vmaxpu=1.2 model=1 kW=2.04002 kvar=0.4099544614599067 Phases=2

New Load.load_p1rlv21341 conn=wye bus1=p1rlv21341.1.2 kV=0.2080002494301389 Vminpu=0.8 Vmaxpu=1.2 model=1 kW=2.30002 kvar=0.46944046466083733 Phases=2

New Load.load_p1rlv21342 conn=wye bus1=p1rlv21342.1.2 kV=0.2080002494301389 Vminpu=0.8 Vmaxpu=1.2 model=1 kW=2.38002 kvar=0.47953488966710467 Phases=2

New Load.load_p1rlv21343 conn=wye bus1=p1rlv21343.1.2 kV=0.2080002494301389 Vminpu=0.8 Vmaxpu=1.2 model=1 kW=2.30002 kvar=0.46944046466083733 Phases=2

New Load.load_p1rlv21348 conn=wye bus1=p1rlv21348.1.2 kV=0.2080002494301389 Vminpu=0.8 Vmaxpu=1.2 model=1 kW=2.1200200000000002 kvar=0.4304884217173018 Phases=2

New Load.load_p1rlv21349 conn=wye bus1=p1rlv21349.1.2 kV=0.2080002494301389 Vminpu=0.8 Vmaxpu=1.2 model=1 kW=3.89004 kvar=0.789906312212702 Phases=2

New Load.load_p1rlv21350 conn=wye bus1=p1rlv21350.1.2 kV=0.2080002494301389 Vminpu=0.8 Vmaxpu=1.2 model=1 kW=1.59002 kvar=0.3203628815171678 Phases=2

New Load.load_p1rlv21351 conn=wye bus1=p1rlv21351.1.2 kV=0.2080002494301389 Vminpu=0.8 Vmaxpu=1.2 model=1 kW=1.96002 kvar=0.40004552114526587 Phases=2

New Load.load_p1rlv21353 conn=wye bus1=p1rlv21353.1.2 kV=0.2080002494301389 Vminpu=0.8 Vmaxpu=1.2 model=1 kW=2.18002 kvar=0.44038539037902263 Phases=2

New Load.load_p1rlv21354 conn=wye bus1=p1rlv21354.1.2 kV=0.2080002494301389 Vminpu=0.8 Vmaxpu=1.2 model=1 kW=2.65003 kvar=0.5394965717823037 Phases=2

New Load.load_p1rlv21355 conn=wye bus1=p1rlv21355.1.2 kV=0.2080002494301389 Vminpu=0.8 Vmaxpu=1.2 model=1 kW=2.26002 kvar=0.4600978261225126 Phases=2

New Load.load_p1rlv21356 conn=wye bus1=p1rlv21356.1.2 kV=0.2080002494301389 Vminpu=0.8 Vmaxpu=1.2 model=1 kW=2.98003 kvar=0.6004270372747549 Phases=2

New Load.load_p1rlv21363 conn=wye bus1=p1rlv21363.1.2 kV=0.2080002494301389 Vminpu=0.8 Vmaxpu=1.2 model=1 kW=3.42003 kvar=0.6908795546178332 Phases=2

New Load.load_p1rlv21364 conn=wye bus1=p1rlv21364.1.2 kV=0.2080002494301389 Vminpu=0.8 Vmaxpu=1.2 model=1 kW=2.5500300000000005 kvar=0.5204681994500374 Phases=2

New Load.load_p1rlv21367 conn=wye bus1=p1rlv21367.1.2 kV=0.2080002494301389 Vminpu=0.8 Vmaxpu=1.2 model=1 kW=2.30002 kvar=0.46944046466083733 Phases=2

New Load.load_p1rlv21369 conn=wye bus1=p1rlv21369.1.2 kV=0.2080002494301389 Vminpu=0.8 Vmaxpu=1.2 model=1 kW=1.54002 kvar=0.31028870378615914 Phases=2

New Load.load_p1rlv21370 conn=wye bus1=p1rlv21370.1.2 kV=0.2080002494301389 Vminpu=0.8 Vmaxpu=1.2 model=1 kW=2.31002 kvar=0.4702768914874764 Phases=2

New Load.load_p1rlv21373 conn=wye bus1=p1rlv21373.1.2 kV=0.2080002494301389 Vminpu=0.8 Vmaxpu=1.2 model=1 kW=2.77003 kvar=0.5595731887375364 Phases=2

New Load.load_p1rlv21375 conn=wye bus1=p1rlv21375.1.2 kV=0.2080002494301389 Vminpu=0.8 Vmaxpu=1.2 model=1 kW=1.61002 kvar=0.3302830609165535 Phases=2

New Load.load_p1rlv21376 conn=wye bus1=p1rlv21376.1.2 kV=0.2080002494301389 Vminpu=0.8 Vmaxpu=1.2 model=1 kW=0.730007 kvar=0.150133381967663 Phases=2

New Load.load_p1rlv21377 conn=wye bus1=p1rlv21377.1.2 kV=0.2080002494301389 Vminpu=0.8 Vmaxpu=1.2 model=1 kW=0.740007 kvar=0.14987718887849347 Phases=2

New Load.load_p1rlv21378 conn=wye bus1=p1rlv21378.1.2 kV=0.2080002494301389 Vminpu=0.8 Vmaxpu=1.2 model=1 kW=2.95003 kvar=0.6005709639720869 Phases=2

New Load.load_p1rlv21379 conn=wye bus1=p1rlv21379.1.2 kV=0.2080002494301389 Vminpu=0.8 Vmaxpu=1.2 model=1 kW=3.27003 kvar=0.660578085568534 Phases=2

New Load.load_p1rlv21380 conn=wye bus1=p1rlv21380.1.2 kV=0.2080002494301389 Vminpu=0.8 Vmaxpu=1.2 model=1 kW=1.77002 kvar=0.36034298554586675 Phases=2

New Load.load_p1rlv21381 conn=wye bus1=p1rlv21381.1.2 kV=0.2080002494301389 Vminpu=0.8 Vmaxpu=1.2 model=1 kW=2.34002 kvar=0.48003687420401825 Phases=2

New Load.load_p1rlv21382 conn=wye bus1=p1rlv21382.1.2 kV=0.2080002494301389 Vminpu=0.8 Vmaxpu=1.2 model=1 kW=1.3200100000000001 kvar=0.27010450252693985 Phases=2

New Load.load_p1rlv21383 conn=wye bus1=p1rlv21383.1.2 kV=0.2080002494301389 Vminpu=0.8 Vmaxpu=1.2 model=1 kW=1.44001 kvar=0.2901383334885957 Phases=2

New Load.load_p1rlv21384 conn=wye bus1=p1rlv21384.1.2 kV=0.2080002494301389 Vminpu=0.8 Vmaxpu=1.2 model=1 kW=1.87002 kvar=0.3797237565588007 Phases=2

New Load.load_p1rlv21385 conn=wye bus1=p1rlv21385.1.2 kV=0.2080002494301389 Vminpu=0.8 Vmaxpu=1.2 model=1 kW=2.84003 kvar=0.5796580042133189 Phases=2

New Load.load_p1rlv21386 conn=wye bus1=p1rlv21386.1.2 kV=0.2080002494301389 Vminpu=0.8 Vmaxpu=1.2 model=1 kW=2.38002 kvar=0.47953488966710467 Phases=2

New Load.load_p1rlv21387 conn=wye bus1=p1rlv21387.1.2 kV=0.2080002494301389 Vminpu=0.8 Vmaxpu=1.2 model=1 kW=2.49002 kvar=0.5095155441111284 Phases=2

New Load.load_p1rlv21388 conn=wye bus1=p1rlv21388.1.2 kV=0.2080002494301389 Vminpu=0.8 Vmaxpu=1.2 model=1 kW=1.81002 kvar=0.37037185450398985 Phases=2

New Load.load_p1rlv21389 conn=wye bus1=p1rlv21389.1.2 kV=0.2080002494301389 Vminpu=0.8 Vmaxpu=1.2 model=1 kW=0.310003 kvar=0.0599664687046236 Phases=2

New Load.load_p1rlv21390 conn=wye bus1=p1rlv21390.1.2 kV=0.2080002494301389 Vminpu=0.8 Vmaxpu=1.2 model=1 kW=5.49005 kvar=1.8103300071234045 Phases=2

New Load.load_p1rlv21391 conn=wye bus1=p1rlv21391.1.2 kV=0.2080002494301389 Vminpu=0.8 Vmaxpu=1.2 model=1 kW=2.3700200000000002 kvar=0.4800115879793125 Phases=2

New Load.load_p1rlv21392 conn=wye bus1=p1rlv21392.1.2 kV=0.2080002494301389 Vminpu=0.8 Vmaxpu=1.2 model=1 kW=2.84003 kvar=0.5796580042133189 Phases=2

New Load.load_p1rlv21393 conn=wye bus1=p1rlv21393.1.2 kV=0.2080002494301389 Vminpu=0.8 Vmaxpu=1.2 model=1 kW=1.58002 kvar=0.32000907555171404 Phases=2

New Load.load_p1rlv21394 conn=wye bus1=p1rlv21394.1.2 kV=0.2080002494301389 Vminpu=0.8 Vmaxpu=1.2 model=1 kW=7.18007 kvar=2.3599748830716 Phases=2

New Load.load_p1rlv21395 conn=wye bus1=p1rlv21395.1.2 kV=0.2080002494301389 Vminpu=0.8 Vmaxpu=1.2 model=1 kW=2.64003 kvar=0.5402110512846091 Phases=2

New Load.load_p1rlv21397 conn=wye bus1=p1rlv21397.1.2 kV=0.2080002494301389 Vminpu=0.8 Vmaxpu=1.2 model=1 kW=2.34002 kvar=0.47024129121548364 Phases=2

New Load.load_p1rlv21398 conn=wye bus1=p1rlv21398.1.2 kV=0.2080002494301389 Vminpu=0.8 Vmaxpu=1.2 model=1 kW=1.90002 kvar=0.3897743018115738 Phases=2

New Load.load_p1rlv21399 conn=wye bus1=p1rlv21399.1.2 kV=0.2080002494301389 Vminpu=0.8 Vmaxpu=1.2 model=1 kW=2.38002 kvar=0.47953488966710467 Phases=2

New Load.load_p1rlv21400 conn=wye bus1=p1rlv21400.1.2 kV=0.2080002494301389 Vminpu=0.8 Vmaxpu=1.2 model=1 kW=1.89002 kvar=0.37981104658211823 Phases=2

New Load.load_p1rlv21401 conn=wye bus1=p1rlv21401.1.2 kV=0.2080002494301389 Vminpu=0.8 Vmaxpu=1.2 model=1 kW=1.87002 kvar=0.3797237565588007 Phases=2

New Load.load_p1rlv21402 conn=wye bus1=p1rlv21402.1.2 kV=0.2080002494301389 Vminpu=0.8 Vmaxpu=1.2 model=1 kW=2.36002 kvar=0.4804559568524403 Phases=2

New Load.load_p1rlv21403 conn=wye bus1=p1rlv21403.1.2 kV=0.2080002494301389 Vminpu=0.8 Vmaxpu=1.2 model=1 kW=1.64002 kvar=0.32957202178580414 Phases=2

New Load.load_p1rlv21404 conn=wye bus1=p1rlv21404.1.2 kV=0.2080002494301389 Vminpu=0.8 Vmaxpu=1.2 model=1 kW=2.34002 kvar=0.48003687420401825 Phases=2

New Load.load_p1rlv21406 conn=wye bus1=p1rlv21406.1.2 kV=0.2080002494301389 Vminpu=0.8 Vmaxpu=1.2 model=1 kW=2.5100300000000004 kvar=0.5096833299511698 Phases=2

New Load.load_p1rlv21408 conn=wye bus1=p1rlv21408.1.2 kV=0.2080002494301389 Vminpu=0.8 Vmaxpu=1.2 model=1 kW=2.70003 kvar=0.5496756371472675 Phases=2

New Load.load_p1rlv21409 conn=wye bus1=p1rlv21409.1.2 kV=0.2080002494301389 Vminpu=0.8 Vmaxpu=1.2 model=1 kW=11.010100000000001 kvar=3.6188448664298014 Phases=2

New Load.load_p1rlv21410 conn=wye bus1=p1rlv21410.1.2 kV=0.2080002494301389 Vminpu=0.8 Vmaxpu=1.2 model=1 kW=4.00004 kvar=0.8101474048239126 Phases=2

New Load.load_p1rlv21411 conn=wye bus1=p1rlv21411.1.2 kV=0.2080002494301389 Vminpu=0.8 Vmaxpu=1.2 model=1 kW=1.44001 kvar=0.2901383334885957 Phases=2

New Load.load_p1rlv21412 conn=wye bus1=p1rlv21412.1.2 kV=0.2080002494301389 Vminpu=0.8 Vmaxpu=1.2 model=1 kW=2.04002 kvar=0.4099544614599067 Phases=2

New Load.load_p1rlv21414 conn=wye bus1=p1rlv21414.1.2 kV=0.2080002494301389 Vminpu=0.8 Vmaxpu=1.2 model=1 kW=11.6001 kvar=3.808650565348266 Phases=2

New Load.load_p1rlv21415 conn=wye bus1=p1rlv21415.1.2 kV=0.2080002494301389 Vminpu=0.8 Vmaxpu=1.2 model=1 kW=1.52002 kvar=0.31024030012511455 Phases=2

New Load.load_p1rlv21416 conn=wye bus1=p1rlv21416.1.2 kV=0.2080002494301389 Vminpu=0.8 Vmaxpu=1.2 model=1 kW=3.15003 kvar=0.6396408727569326 Phases=2

New Load.load_p1rlv21417 conn=wye bus1=p1rlv21417.1.2 kV=0.2080002494301389 Vminpu=0.8 Vmaxpu=1.2 model=1 kW=8.25008 kvar=2.7087414639674163 Phases=2

New Load.load_p1rlv21418 conn=wye bus1=p1rlv21418.1.2 kV=0.2080002494301389 Vminpu=0.8 Vmaxpu=1.2 model=1 kW=8.08008 kvar=2.658660024601689 Phases=2

New Load.load_p1rlv21419 conn=wye bus1=p1rlv21419.1.2 kV=0.2080002494301389 Vminpu=0.8 Vmaxpu=1.2 model=1 kW=1.94002 kvar=0.38985885154138106 Phases=2

New Load.load_p1rlv21420 conn=wye bus1=p1rlv21420.1.2 kV=0.2080002494301389 Vminpu=0.8 Vmaxpu=1.2 model=1 kW=12.1401 kvar=3.990257905281917 Phases=2

New Load.load_p1rlv21421 conn=wye bus1=p1rlv21421.1.2 kV=0.2080002494301389 Vminpu=0.8 Vmaxpu=1.2 model=1 kW=1.75002 kvar=0.3498246235335853 Phases=2

New Load.load_p1rlv21422 conn=wye bus1=p1rlv21422.1.2 kV=0.2080002494301389 Vminpu=0.8 Vmaxpu=1.2 model=1 kW=1.20001 kvar=0.23987899937517151 Phases=2

New Load.load_p1rlv21423 conn=wye bus1=p1rlv21423.1.2 kV=0.2080002494301389 Vminpu=0.8 Vmaxpu=1.2 model=1 kW=2.24002 kvar=0.45014568129695803 Phases=2

New Load.load_p1rlv21424 conn=wye bus1=p1rlv21424.1.2 kV=0.2080002494301389 Vminpu=0.8 Vmaxpu=1.2 model=1 kW=1.18001 kvar=0.24022797842622015 Phases=2

New Load.load_p1rlv21425 conn=wye bus1=p1rlv21425.1.2 kV=0.2080002494301389 Vminpu=0.8 Vmaxpu=1.2 model=1 kW=2.18002 kvar=0.44038539037902263 Phases=2

New Load.load_p1rlv21426 conn=wye bus1=p1rlv21426.1.2 kV=0.2080002494301389 Vminpu=0.8 Vmaxpu=1.2 model=1 kW=0.540005 kvar=0.10993492384814621 Phases=2

New Load.load_p1rlv21427 conn=wye bus1=p1rlv21427.1.2 kV=0.2080002494301389 Vminpu=0.8 Vmaxpu=1.2 model=1 kW=1.68002 kvar=0.34026255813748596 Phases=2

New Load.load_p1rlv21428 conn=wye bus1=p1rlv21428.1.2 kV=0.2080002494301389 Vminpu=0.8 Vmaxpu=1.2 model=1 kW=1.77002 kvar=0.36034298554586675 Phases=2

New Load.load_p1rlv21429 conn=wye bus1=p1rlv21429.1.2 kV=0.2080002494301389 Vminpu=0.8 Vmaxpu=1.2 model=1 kW=1.38001 kvar=0.28022298226153225 Phases=2

New Load.load_p1rlv21430 conn=wye bus1=p1rlv21430.1.2 kV=0.2080002494301389 Vminpu=0.8 Vmaxpu=1.2 model=1 kW=1.40001 kvar=0.2798584994418662 Phases=2

New Load.load_p1rlv21431 conn=wye bus1=p1rlv21431.1.2 kV=0.2080002494301389 Vminpu=0.8 Vmaxpu=1.2 model=1 kW=2.96003 kvar=0.5995091605836256 Phases=2

New Load.load_p1rlv21432 conn=wye bus1=p1rlv21432.1.2 kV=0.2080002494301389 Vminpu=0.8 Vmaxpu=1.2 model=1 kW=3.51004 kvar=0.7109053401536299 Phases=2

New Load.load_p1rlv21433 conn=wye bus1=p1rlv21433.1.2 kV=0.2080002494301389 Vminpu=0.8 Vmaxpu=1.2 model=1 kW=1.41001 kvar=0.2899829315447996 Phases=2

...